<?xml version="1.0" encoding="UTF-8"?>
<routes xmlns:xsi="http://www.w3.org/2001/XMLSchema-instance" xsi:noNamespaceSchemaLocation="http://sumo.dlr.de/xsd/routes_file.xsd">
  <vType id="car" accel="2.6" decel="4.5" sigma="0.5" length="5" maxSpeed="16.67" guiShape="passenger"/>
  <vType id="bus" accel="1.2" decel="4.0" sigma="0.5" length="12" maxSpeed="11.11" guiShape="bus"/>
  <vType id="truck" accel="1.0" decel="3.5" sigma="0.5" length="10" maxSpeed="11.11" guiShape="truck"/>
  <vType id="emergency" accel="3.0" decel="5.0" sigma="0.2" length="6" maxSpeed="22.22" guiShape="emergency" vClass="emergency"/>
  <route id="route_NS_0" edges="N_in_0_to_J3_0 J3_0_to_J2_0 J2_0_to_J1_0 J1_0_to_J0_0 J0_0_to_S_in_0"/>
  <route id="route_NS_1" edges="N_in_1_to_J3_1 J3_1_to_J2_1 J2_1_to_J1_1 J1_1_to_J0_1 J0_1_to_S_in_1"/>
  <route id="route_NS_2" edges="N_in_2_to_J3_2 J3_2_to_J2_2 J2_2_to_J1_2 J1_2_to_J0_2 J0_2_to_S_in_2"/>
  <route id="route_NS_3" edges="N_in_3_to_J3_3 J3_3_to_J2_3 J2_3_to_J1_3 J1_3_to_J0_3 J0_3_to_S_in_3"/>
  <route id="route_SN_0" edges="S_in_0_to_J0_0 J0_0_to_J1_0 J1_0_to_J2_0 J2_0_to_J3_0 J3_0_to_N_in_0"/>
  <route id="route_SN_1" edges="S_in_1_to_J0_1 J0_1_to_J1_1 J1_1_to_J2_1 J2_1_to_J3_1 J3_1_to_N_in_1"/>
  <route id="route_SN_2" edges="S_in_2_to_J0_2 J0_2_to_J1_2 J1_2_to_J2_2 J2_2_to_J3_2 J3_2_to_N_in_2"/>
  <route id="route_SN_3" edges="S_in_3_to_J0_3 J0_3_to_J1_3 J1_3_to_J2_3 J2_3_to_J3_3 J3_3_to_N_in_3"/>
  <route id="route_WE_0" edges="W_in_0_to_J0_0 J0_0_to_J0_1 J0_1_to_J0_2 J0_2_to_J0_3 J0_3_to_E_in_0"/>
  <route id="route_WE_1" edges="W_in_1_to_J1_0 J1_0_to_J1_1 J1_1_to_J1_2 J1_2_to_J1_3 J1_3_to_E_in_1"/>
  <route id="route_WE_2" edges="W_in_2_to_J2_0 J2_0_to_J2_1 J2_1_to_J2_2 J2_2_to_J2_3 J2_3_to_E_in_2"/>
  <route id="route_WE_3" edges="W_in_3_to_J3_0 J3_0_to_J3_1 J3_1_to_J3_2 J3_2_to_J3_3 J3_3_to_E_in_3"/>
  <route id="route_EW_0" edges="E_in_0_to_J0_3 J0_3_to_J0_2 J0_2_to_J0_1 J0_1_to_J0_0 J0_0_to_W_in_0"/>
  <route id="route_EW_1" edges="E_in_1_to_J1_3 J1_3_to_J1_2 J1_2_to_J1_1 J1_1_to_J1_0 J1_0_to_W_in_1"/>
  <route id="route_EW_2" edges="E_in_2_to_J2_3 J2_3_to_J2_2 J2_2_to_J2_1 J2_1_to_J2_0 J2_0_to_W_in_2"/>
  <route id="route_EW_3" edges="E_in_3_to_J3_3 J3_3_to_J3_2 J3_2_to_J3_1 J3_1_to_J3_0 J3_0_to_W_in_3"/>
  <route id="route_diag1" edges="S_in_0_to_J0_0 J0_0_to_J0_1 J0_1_to_J1_1 J1_1_to_J2_1 J2_1_to_J2_2 J2_2_to_J3_2 J3_2_to_N_in_2"/>
  <route id="route_diag2" edges="W_in_0_to_J0_0 J0_0_to_J1_0 J1_0_to_J1_1 J1_1_to_J1_2 J1_2_to_J2_2 J2_2_to_J3_2 J3_2_to_N_in_2"/>
  <vehicle id="v_0" type="car" route="route_NS_0" depart="38.4" departLane="best" departSpeed="max"/>
  <vehicle id="v_1" type="car" route="route_NS_0" depart="57.7" departLane="best" departSpeed="max"/>
  <vehicle id="v_2" type="car" route="route_NS_0" depart="137.7" departLane="best" departSpeed="max"/>
  <vehicle id="v_3" type="car" route="route_NS_0" depart="271.3" departLane="best" departSpeed="max"/>
  <vehicle id="v_4" type="car" route="route_NS_0" depart="304.2" departLane="best" departSpeed="max"/>
  <vehicle id="v_5" type="car" route="route_NS_0" depart="319.0" departLane="best" departSpeed="max"/>
  <vehicle id="v_6" type="car" route="route_NS_0" depart="320.6" departLane="best" departSpeed="max"/>
  <vehicle id="v_7" type="car" route="route_NS_0" depart="383.6" departLane="best" departSpeed="max"/>
  <vehicle id="v_8" type="car" route="route_NS_0" depart="398.5" departLane="best" departSpeed="max"/>
  <vehicle id="v_9" type="car" route="route_NS_0" depart="498.0" departLane="best" departSpeed="max"/>
  <vehicle id="v_10" type="car" route="route_NS_0" depart="596.3" departLane="best" departSpeed="max"/>
  <vehicle id="v_11" type="car" route="route_NS_0" depart="621.3" departLane="best" departSpeed="max"/>
  <vehicle id="v_12" type="car" route="route_NS_0" depart="810.4" departLane="best" departSpeed="max"/>
  <vehicle id="v_13" type="car" route="route_NS_0" depart="816.2" departLane="best" departSpeed="max"/>
  <vehicle id="v_14" type="car" route="route_NS_0" depart="929.0" departLane="best" departSpeed="max"/>
  <vehicle id="v_15" type="car" route="route_NS_0" depart="1027.8" departLane="best" departSpeed="max"/>
  <vehicle id="v_16" type="truck" route="route_NS_0" depart="1073.9" departLane="best" departSpeed="max"/>
  <vehicle id="v_17" type="car" route="route_NS_0" depart="1102.4" departLane="best" departSpeed="max"/>
  <vehicle id="v_18" type="car" route="route_NS_0" depart="1208.5" departLane="best" departSpeed="max"/>
  <vehicle id="v_19" type="car" route="route_NS_0" depart="1327.2" departLane="best" departSpeed="max"/>
  <vehicle id="v_20" type="car" route="route_NS_0" depart="1400.4" departLane="best" departSpeed="max"/>
  <vehicle id="v_21" type="car" route="route_NS_0" depart="1415.9" departLane="best" departSpeed="max"/>
  <vehicle id="v_22" type="car" route="route_NS_0" depart="1420.9" departLane="best" departSpeed="max"/>
  <vehicle id="v_23" type="car" route="route_NS_0" depart="1427.3" departLane="best" departSpeed="max"/>
  <vehicle id="v_24" type="car" route="route_NS_0" depart="1487.9" departLane="best" departSpeed="max"/>
  <vehicle id="v_25" type="car" route="route_NS_0" depart="1515.6" departLane="best" departSpeed="max"/>
  <vehicle id="v_26" type="truck" route="route_NS_0" depart="1534.3" departLane="best" departSpeed="max"/>
  <vehicle id="v_27" type="car" route="route_NS_0" depart="1596.9" departLane="best" departSpeed="max"/>
  <vehicle id="v_28" type="car" route="route_NS_0" depart="1608.2" departLane="best" departSpeed="max"/>
  <vehicle id="v_29" type="car" route="route_NS_0" depart="1618.9" departLane="best" departSpeed="max"/>
  <vehicle id="v_30" type="car" route="route_NS_0" depart="1892.4" departLane="best" departSpeed="max"/>
  <vehicle id="v_31" type="car" route="route_NS_0" depart="1941.2" departLane="best" departSpeed="max"/>
  <vehicle id="v_32" type="car" route="route_NS_0" depart="2052.3" departLane="best" departSpeed="max"/>
  <vehicle id="v_33" type="car" route="route_NS_0" depart="2067.9" departLane="best" departSpeed="max"/>
  <vehicle id="v_34" type="car" route="route_NS_0" depart="2090.6" departLane="best" departSpeed="max"/>
  <vehicle id="v_35" type="truck" route="route_NS_0" depart="2104.8" departLane="best" departSpeed="max"/>
  <vehicle id="v_36" type="car" route="route_NS_0" depart="2230.3" departLane="best" departSpeed="max"/>
  <vehicle id="v_37" type="car" route="route_NS_0" depart="2294.2" departLane="best" departSpeed="max"/>
  <vehicle id="v_38" type="car" route="route_NS_0" depart="2441.8" departLane="best" departSpeed="max"/>
  <vehicle id="v_39" type="car" route="route_NS_0" depart="2460.2" departLane="best" departSpeed="max"/>
  <vehicle id="v_40" type="car" route="route_NS_0" depart="2509.7" departLane="best" departSpeed="max"/>
  <vehicle id="v_41" type="bus" route="route_NS_0" depart="2562.4" departLane="best" departSpeed="max"/>
  <vehicle id="v_42" type="car" route="route_NS_0" depart="2593.0" departLane="best" departSpeed="max"/>
  <vehicle id="v_43" type="car" route="route_NS_0" depart="2953.4" departLane="best" departSpeed="max"/>
  <vehicle id="v_44" type="car" route="route_NS_0" depart="2959.1" departLane="best" departSpeed="max"/>
  <vehicle id="v_45" type="car" route="route_NS_0" depart="2966.1" departLane="best" departSpeed="max"/>
  <vehicle id="v_46" type="car" route="route_NS_0" depart="3060.3" departLane="best" departSpeed="max"/>
  <vehicle id="v_47" type="car" route="route_NS_0" depart="3064.2" departLane="best" departSpeed="max"/>
  <vehicle id="v_48" type="car" route="route_NS_0" depart="3397.4" departLane="best" departSpeed="max"/>
  <vehicle id="v_49" type="car" route="route_NS_1" depart="34.4" departLane="best" departSpeed="max"/>
  <vehicle id="v_50" type="car" route="route_NS_1" depart="85.5" departLane="best" departSpeed="max"/>
  <vehicle id="v_51" type="car" route="route_NS_1" depart="116.3" departLane="best" departSpeed="max"/>
  <vehicle id="v_52" type="car" route="route_NS_1" depart="157.2" departLane="best" departSpeed="max"/>
  <vehicle id="v_53" type="car" route="route_NS_1" depart="180.0" departLane="best" departSpeed="max"/>
  <vehicle id="v_54" type="bus" route="route_NS_1" depart="303.1" departLane="best" departSpeed="max"/>
  <vehicle id="v_55" type="car" route="route_NS_1" depart="315.3" departLane="best" departSpeed="max"/>
  <vehicle id="v_56" type="truck" route="route_NS_1" depart="323.2" departLane="best" departSpeed="max"/>
  <vehicle id="v_57" type="car" route="route_NS_1" depart="404.9" departLane="best" departSpeed="max"/>
  <vehicle id="v_58" type="car" route="route_NS_1" depart="445.7" departLane="best" departSpeed="max"/>
  <vehicle id="v_59" type="car" route="route_NS_1" depart="452.3" departLane="best" departSpeed="max"/>
  <vehicle id="v_60" type="car" route="route_NS_1" depart="483.3" departLane="best" departSpeed="max"/>
  <vehicle id="v_61" type="car" route="route_NS_1" depart="513.5" departLane="best" departSpeed="max"/>
  <vehicle id="v_62" type="car" route="route_NS_1" depart="529.2" departLane="best" departSpeed="max"/>
  <vehicle id="v_63" type="bus" route="route_NS_1" depart="635.1" departLane="best" departSpeed="max"/>
  <vehicle id="v_64" type="car" route="route_NS_1" depart="706.3" departLane="best" departSpeed="max"/>
  <vehicle id="v_65" type="bus" route="route_NS_1" depart="708.7" departLane="best" departSpeed="max"/>
  <vehicle id="v_66" type="car" route="route_NS_1" depart="826.2" departLane="best" departSpeed="max"/>
  <vehicle id="v_67" type="car" route="route_NS_1" depart="852.8" departLane="best" departSpeed="max"/>
  <vehicle id="v_68" type="car" route="route_NS_1" depart="910.0" departLane="best" departSpeed="max"/>
  <vehicle id="v_69" type="car" route="route_NS_1" depart="915.5" departLane="best" departSpeed="max"/>
  <vehicle id="v_70" type="car" route="route_NS_1" depart="947.4" departLane="best" departSpeed="max"/>
  <vehicle id="v_71" type="car" route="route_NS_1" depart="1029.8" departLane="best" departSpeed="max"/>
  <vehicle id="v_72" type="car" route="route_NS_1" depart="1039.3" departLane="best" departSpeed="max"/>
  <vehicle id="v_73" type="car" route="route_NS_1" depart="1091.7" departLane="best" departSpeed="max"/>
  <vehicle id="v_74" type="truck" route="route_NS_1" depart="1106.6" departLane="best" departSpeed="max"/>
  <vehicle id="v_75" type="car" route="route_NS_1" depart="1148.6" departLane="best" departSpeed="max"/>
  <vehicle id="v_76" type="car" route="route_NS_1" depart="1177.7" departLane="best" departSpeed="max"/>
  <vehicle id="v_77" type="car" route="route_NS_1" depart="1187.9" departLane="best" departSpeed="max"/>
  <vehicle id="v_78" type="car" route="route_NS_1" depart="1223.4" departLane="best" departSpeed="max"/>
  <vehicle id="v_79" type="car" route="route_NS_1" depart="1233.4" departLane="best" departSpeed="max"/>
  <vehicle id="v_80" type="car" route="route_NS_1" depart="1273.3" departLane="best" departSpeed="max"/>
  <vehicle id="v_81" type="bus" route="route_NS_1" depart="1367.6" departLane="best" departSpeed="max"/>
  <vehicle id="v_82" type="car" route="route_NS_1" depart="1370.5" departLane="best" departSpeed="max"/>
  <vehicle id="v_83" type="car" route="route_NS_1" depart="1414.8" departLane="best" departSpeed="max"/>
  <vehicle id="v_84" type="truck" route="route_NS_1" depart="1420.4" departLane="best" departSpeed="max"/>
  <vehicle id="v_85" type="car" route="route_NS_1" depart="1454.3" departLane="best" departSpeed="max"/>
  <vehicle id="v_86" type="bus" route="route_NS_1" depart="1515.7" departLane="best" departSpeed="max"/>
  <vehicle id="v_87" type="car" route="route_NS_1" depart="1524.2" departLane="best" departSpeed="max"/>
  <vehicle id="v_88" type="car" route="route_NS_1" depart="1546.7" departLane="best" departSpeed="max"/>
  <vehicle id="v_89" type="car" route="route_NS_1" depart="1571.9" departLane="best" departSpeed="max"/>
  <vehicle id="v_90" type="truck" route="route_NS_1" depart="1616.6" departLane="best" departSpeed="max"/>
  <vehicle id="v_91" type="car" route="route_NS_1" depart="1620.8" departLane="best" departSpeed="max"/>
  <vehicle id="v_92" type="bus" route="route_NS_1" depart="1637.4" departLane="best" departSpeed="max"/>
  <vehicle id="v_93" type="car" route="route_NS_1" depart="1648.8" departLane="best" departSpeed="max"/>
  <vehicle id="v_94" type="car" route="route_NS_1" depart="1672.6" departLane="best" departSpeed="max"/>
  <vehicle id="v_95" type="car" route="route_NS_1" depart="1685.7" departLane="best" departSpeed="max"/>
  <vehicle id="v_96" type="car" route="route_NS_1" depart="1788.4" departLane="best" departSpeed="max"/>
  <vehicle id="v_97" type="car" route="route_NS_1" depart="1867.4" departLane="best" departSpeed="max"/>
  <vehicle id="v_98" type="truck" route="route_NS_1" depart="1869.5" departLane="best" departSpeed="max"/>
  <vehicle id="v_99" type="truck" route="route_NS_1" depart="1941.8" departLane="best" departSpeed="max"/>
  <vehicle id="v_100" type="bus" route="route_NS_1" depart="2046.1" departLane="best" departSpeed="max"/>
  <vehicle id="v_101" type="car" route="route_NS_1" depart="2053.4" departLane="best" departSpeed="max"/>
  <vehicle id="v_102" type="car" route="route_NS_1" depart="2063.0" departLane="best" departSpeed="max"/>
  <vehicle id="v_103" type="car" route="route_NS_1" depart="2065.5" departLane="best" departSpeed="max"/>
  <vehicle id="v_104" type="car" route="route_NS_1" depart="2234.3" departLane="best" departSpeed="max"/>
  <vehicle id="v_105" type="car" route="route_NS_1" depart="2295.6" departLane="best" departSpeed="max"/>
  <vehicle id="v_106" type="truck" route="route_NS_1" depart="2317.6" departLane="best" departSpeed="max"/>
  <vehicle id="v_107" type="car" route="route_NS_1" depart="2533.0" departLane="best" departSpeed="max"/>
  <vehicle id="v_108" type="car" route="route_NS_1" depart="2583.7" departLane="best" departSpeed="max"/>
  <vehicle id="v_109" type="truck" route="route_NS_1" depart="2597.8" departLane="best" departSpeed="max"/>
  <vehicle id="v_110" type="car" route="route_NS_1" depart="2632.4" departLane="best" departSpeed="max"/>
  <vehicle id="v_111" type="car" route="route_NS_1" depart="2687.6" departLane="best" departSpeed="max"/>
  <vehicle id="v_112" type="car" route="route_NS_1" depart="2722.7" departLane="best" departSpeed="max"/>
  <vehicle id="v_113" type="car" route="route_NS_1" depart="2799.3" departLane="best" departSpeed="max"/>
  <vehicle id="v_114" type="car" route="route_NS_1" depart="2928.8" departLane="best" departSpeed="max"/>
  <vehicle id="v_115" type="car" route="route_NS_1" depart="2937.1" departLane="best" departSpeed="max"/>
  <vehicle id="v_116" type="car" route="route_NS_1" depart="2982.0" departLane="best" departSpeed="max"/>
  <vehicle id="v_117" type="bus" route="route_NS_1" depart="2987.1" departLane="best" departSpeed="max"/>
  <vehicle id="v_118" type="car" route="route_NS_1" depart="2998.4" departLane="best" departSpeed="max"/>
  <vehicle id="v_119" type="car" route="route_NS_1" depart="3037.1" departLane="best" departSpeed="max"/>
  <vehicle id="v_120" type="car" route="route_NS_1" depart="3072.1" departLane="best" departSpeed="max"/>
  <vehicle id="v_121" type="car" route="route_NS_1" depart="3181.3" departLane="best" departSpeed="max"/>
  <vehicle id="v_122" type="car" route="route_NS_1" depart="3231.7" departLane="best" departSpeed="max"/>
  <vehicle id="v_123" type="car" route="route_NS_1" depart="3251.8" departLane="best" departSpeed="max"/>
  <vehicle id="v_124" type="car" route="route_NS_1" depart="3266.1" departLane="best" departSpeed="max"/>
  <vehicle id="v_125" type="car" route="route_NS_1" depart="3321.8" departLane="best" departSpeed="max"/>
  <vehicle id="v_126" type="truck" route="route_NS_1" depart="3346.4" departLane="best" departSpeed="max"/>
  <vehicle id="v_127" type="car" route="route_NS_1" depart="3568.2" departLane="best" departSpeed="max"/>
  <vehicle id="v_128" type="car" route="route_NS_1" depart="3577.8" departLane="best" departSpeed="max"/>
  <vehicle id="v_129" type="bus" route="route_NS_2" depart="39.6" departLane="best" departSpeed="max"/>
  <vehicle id="v_130" type="car" route="route_NS_2" depart="60.4" departLane="best" departSpeed="max"/>
  <vehicle id="v_131" type="car" route="route_NS_2" depart="141.1" departLane="best" departSpeed="max"/>
  <vehicle id="v_132" type="truck" route="route_NS_2" depart="183.7" departLane="best" departSpeed="max"/>
  <vehicle id="v_133" type="car" route="route_NS_2" depart="231.5" departLane="best" departSpeed="max"/>
  <vehicle id="v_134" type="car" route="route_NS_2" depart="307.9" departLane="best" departSpeed="max"/>
  <vehicle id="v_135" type="truck" route="route_NS_2" depart="356.9" departLane="best" departSpeed="max"/>
  <vehicle id="v_136" type="car" route="route_NS_2" depart="363.4" departLane="best" departSpeed="max"/>
  <vehicle id="v_137" type="car" route="route_NS_2" depart="368.5" departLane="best" departSpeed="max"/>
  <vehicle id="v_138" type="car" route="route_NS_2" depart="382.8" departLane="best" departSpeed="max"/>
  <vehicle id="v_139" type="car" route="route_NS_2" depart="439.7" departLane="best" departSpeed="max"/>
  <vehicle id="v_140" type="car" route="route_NS_2" depart="485.0" departLane="best" departSpeed="max"/>
  <vehicle id="v_141" type="truck" route="route_NS_2" depart="515.1" departLane="best" departSpeed="max"/>
  <vehicle id="v_142" type="car" route="route_NS_2" depart="599.3" departLane="best" departSpeed="max"/>
  <vehicle id="v_143" type="car" route="route_NS_2" depart="624.1" departLane="best" departSpeed="max"/>
  <vehicle id="v_144" type="car" route="route_NS_2" depart="624.3" departLane="best" departSpeed="max"/>
  <vehicle id="v_145" type="car" route="route_NS_2" depart="669.9" departLane="best" departSpeed="max"/>
  <vehicle id="v_146" type="car" route="route_NS_2" depart="730.7" departLane="best" departSpeed="max"/>
  <vehicle id="v_147" type="car" route="route_NS_2" depart="755.9" departLane="best" departSpeed="max"/>
  <vehicle id="v_148" type="bus" route="route_NS_2" depart="759.4" departLane="best" departSpeed="max"/>
  <vehicle id="v_149" type="car" route="route_NS_2" depart="864.8" departLane="best" departSpeed="max"/>
  <vehicle id="v_150" type="car" route="route_NS_2" depart="945.8" departLane="best" departSpeed="max"/>
  <vehicle id="v_151" type="car" route="route_NS_2" depart="953.0" departLane="best" departSpeed="max"/>
  <vehicle id="v_152" type="bus" route="route_NS_2" depart="969.6" departLane="best" departSpeed="max"/>
  <vehicle id="v_153" type="bus" route="route_NS_2" depart="1041.1" departLane="best" departSpeed="max"/>
  <vehicle id="v_154" type="car" route="route_NS_2" depart="1144.3" departLane="best" departSpeed="max"/>
  <vehicle id="v_155" type="car" route="route_NS_2" depart="1157.2" departLane="best" departSpeed="max"/>
  <vehicle id="v_156" type="bus" route="route_NS_2" depart="1225.3" departLane="best" departSpeed="max"/>
  <vehicle id="v_157" type="car" route="route_NS_2" depart="1248.8" departLane="best" departSpeed="max"/>
  <vehicle id="v_158" type="truck" route="route_NS_2" depart="1256.4" departLane="best" departSpeed="max"/>
  <vehicle id="v_159" type="truck" route="route_NS_2" depart="1346.3" departLane="best" departSpeed="max"/>
  <vehicle id="v_160" type="bus" route="route_NS_2" depart="1421.3" departLane="best" departSpeed="max"/>
  <vehicle id="v_161" type="car" route="route_NS_2" depart="1422.4" departLane="best" departSpeed="max"/>
  <vehicle id="v_162" type="truck" route="route_NS_2" depart="1440.6" departLane="best" departSpeed="max"/>
  <vehicle id="v_163" type="bus" route="route_NS_2" depart="1513.5" departLane="best" departSpeed="max"/>
  <vehicle id="v_164" type="car" route="route_NS_2" depart="1588.4" departLane="best" departSpeed="max"/>
  <vehicle id="v_165" type="car" route="route_NS_2" depart="1658.1" departLane="best" departSpeed="max"/>
  <vehicle id="v_166" type="bus" route="route_NS_2" depart="1750.6" departLane="best" departSpeed="max"/>
  <vehicle id="v_167" type="bus" route="route_NS_2" depart="1762.0" departLane="best" departSpeed="max"/>
  <vehicle id="v_168" type="car" route="route_NS_2" depart="1789.7" departLane="best" departSpeed="max"/>
  <vehicle id="v_169" type="car" route="route_NS_2" depart="1861.1" departLane="best" departSpeed="max"/>
  <vehicle id="v_170" type="car" route="route_NS_2" depart="1862.2" departLane="best" departSpeed="max"/>
  <vehicle id="v_171" type="bus" route="route_NS_2" depart="1880.1" departLane="best" departSpeed="max"/>
  <vehicle id="v_172" type="car" route="route_NS_2" depart="2033.4" departLane="best" departSpeed="max"/>
  <vehicle id="v_173" type="car" route="route_NS_2" depart="2079.6" departLane="best" departSpeed="max"/>
  <vehicle id="v_174" type="car" route="route_NS_2" depart="2258.3" departLane="best" departSpeed="max"/>
  <vehicle id="v_175" type="car" route="route_NS_2" depart="2384.3" departLane="best" departSpeed="max"/>
  <vehicle id="v_176" type="car" route="route_NS_2" depart="2542.7" departLane="best" departSpeed="max"/>
  <vehicle id="v_177" type="car" route="route_NS_2" depart="2690.5" departLane="best" departSpeed="max"/>
  <vehicle id="v_178" type="car" route="route_NS_2" depart="2695.7" departLane="best" departSpeed="max"/>
  <vehicle id="v_179" type="car" route="route_NS_2" depart="2754.4" departLane="best" departSpeed="max"/>
  <vehicle id="v_180" type="car" route="route_NS_2" depart="2796.3" departLane="best" departSpeed="max"/>
  <vehicle id="v_181" type="car" route="route_NS_2" depart="2818.2" departLane="best" departSpeed="max"/>
  <vehicle id="v_182" type="car" route="route_NS_2" depart="2831.4" departLane="best" departSpeed="max"/>
  <vehicle id="v_183" type="truck" route="route_NS_2" depart="2831.5" departLane="best" departSpeed="max"/>
  <vehicle id="v_184" type="car" route="route_NS_2" depart="2866.3" departLane="best" departSpeed="max"/>
  <vehicle id="v_185" type="car" route="route_NS_2" depart="2927.3" departLane="best" departSpeed="max"/>
  <vehicle id="v_186" type="car" route="route_NS_2" depart="2947.6" departLane="best" departSpeed="max"/>
  <vehicle id="v_187" type="car" route="route_NS_2" depart="2996.7" departLane="best" departSpeed="max"/>
  <vehicle id="v_188" type="bus" route="route_NS_2" depart="3013.7" departLane="best" departSpeed="max"/>
  <vehicle id="v_189" type="car" route="route_NS_2" depart="3070.9" departLane="best" departSpeed="max"/>
  <vehicle id="v_190" type="car" route="route_NS_2" depart="3087.6" departLane="best" departSpeed="max"/>
  <vehicle id="v_191" type="car" route="route_NS_2" depart="3110.8" departLane="best" departSpeed="max"/>
  <vehicle id="v_192" type="car" route="route_NS_2" depart="3116.9" departLane="best" departSpeed="max"/>
  <vehicle id="v_193" type="car" route="route_NS_2" depart="3243.8" departLane="best" departSpeed="max"/>
  <vehicle id="v_194" type="car" route="route_NS_2" depart="3348.7" departLane="best" departSpeed="max"/>
  <vehicle id="v_195" type="car" route="route_NS_2" depart="3364.8" departLane="best" departSpeed="max"/>
  <vehicle id="v_196" type="car" route="route_NS_2" depart="3364.8" departLane="best" departSpeed="max"/>
  <vehicle id="v_197" type="car" route="route_NS_2" depart="3390.1" departLane="best" departSpeed="max"/>
  <vehicle id="v_198" type="car" route="route_NS_2" depart="3437.9" departLane="best" departSpeed="max"/>
  <vehicle id="v_199" type="car" route="route_NS_2" depart="3464.2" departLane="best" departSpeed="max"/>
  <vehicle id="v_200" type="truck" route="route_NS_2" depart="3493.0" departLane="best" departSpeed="max"/>
  <vehicle id="v_201" type="car" route="route_NS_2" depart="3564.6" departLane="best" departSpeed="max"/>
  <vehicle id="v_202" type="car" route="route_NS_2" depart="3568.6" departLane="best" departSpeed="max"/>
  <vehicle id="v_203" type="bus" route="route_NS_3" depart="24.1" departLane="best" departSpeed="max"/>
  <vehicle id="v_204" type="car" route="route_NS_3" depart="124.3" departLane="best" departSpeed="max"/>
  <vehicle id="v_205" type="car" route="route_NS_3" depart="142.6" departLane="best" departSpeed="max"/>
  <vehicle id="v_206" type="car" route="route_NS_3" depart="144.4" departLane="best" departSpeed="max"/>
  <vehicle id="v_207" type="bus" route="route_NS_3" depart="190.8" departLane="best" departSpeed="max"/>
  <vehicle id="v_208" type="car" route="route_NS_3" depart="196.2" departLane="best" departSpeed="max"/>
  <vehicle id="v_209" type="car" route="route_NS_3" depart="267.8" departLane="best" departSpeed="max"/>
  <vehicle id="v_210" type="car" route="route_NS_3" depart="353.6" departLane="best" departSpeed="max"/>
  <vehicle id="v_211" type="car" route="route_NS_3" depart="373.7" departLane="best" departSpeed="max"/>
  <vehicle id="v_212" type="car" route="route_NS_3" depart="374.1" departLane="best" departSpeed="max"/>
  <vehicle id="v_213" type="car" route="route_NS_3" depart="480.0" departLane="best" departSpeed="max"/>
  <vehicle id="v_214" type="car" route="route_NS_3" depart="519.8" departLane="best" departSpeed="max"/>
  <vehicle id="v_215" type="car" route="route_NS_3" depart="748.0" departLane="best" departSpeed="max"/>
  <vehicle id="v_216" type="car" route="route_NS_3" depart="751.7" departLane="best" departSpeed="max"/>
  <vehicle id="v_217" type="car" route="route_NS_3" depart="887.5" departLane="best" departSpeed="max"/>
  <vehicle id="v_218" type="car" route="route_NS_3" depart="1003.9" departLane="best" departSpeed="max"/>
  <vehicle id="v_219" type="car" route="route_NS_3" depart="1321.7" departLane="best" departSpeed="max"/>
  <vehicle id="v_220" type="bus" route="route_NS_3" depart="1537.5" departLane="best" departSpeed="max"/>
  <vehicle id="v_221" type="car" route="route_NS_3" depart="1605.7" departLane="best" departSpeed="max"/>
  <vehicle id="v_222" type="bus" route="route_NS_3" depart="1656.3" departLane="best" departSpeed="max"/>
  <vehicle id="v_223" type="bus" route="route_NS_3" depart="1713.5" departLane="best" departSpeed="max"/>
  <vehicle id="v_224" type="car" route="route_NS_3" depart="1811.5" departLane="best" departSpeed="max"/>
  <vehicle id="v_225" type="car" route="route_NS_3" depart="1833.1" departLane="best" departSpeed="max"/>
  <vehicle id="v_226" type="car" route="route_NS_3" depart="1906.2" departLane="best" departSpeed="max"/>
  <vehicle id="v_227" type="car" route="route_NS_3" depart="1959.2" departLane="best" departSpeed="max"/>
  <vehicle id="v_228" type="car" route="route_NS_3" depart="1982.4" departLane="best" departSpeed="max"/>
  <vehicle id="v_229" type="car" route="route_NS_3" depart="2006.6" departLane="best" departSpeed="max"/>
  <vehicle id="v_230" type="car" route="route_NS_3" depart="2034.3" departLane="best" departSpeed="max"/>
  <vehicle id="v_231" type="car" route="route_NS_3" depart="2045.0" departLane="best" departSpeed="max"/>
  <vehicle id="v_232" type="car" route="route_NS_3" depart="2130.3" departLane="best" departSpeed="max"/>
  <vehicle id="v_233" type="car" route="route_NS_3" depart="2135.1" departLane="best" departSpeed="max"/>
  <vehicle id="v_234" type="car" route="route_NS_3" depart="2191.4" departLane="best" departSpeed="max"/>
  <vehicle id="v_235" type="car" route="route_NS_3" depart="2208.1" departLane="best" departSpeed="max"/>
  <vehicle id="v_236" type="car" route="route_NS_3" depart="2377.4" departLane="best" departSpeed="max"/>
  <vehicle id="v_237" type="bus" route="route_NS_3" depart="2463.1" departLane="best" departSpeed="max"/>
  <vehicle id="v_238" type="car" route="route_NS_3" depart="2567.5" departLane="best" departSpeed="max"/>
  <vehicle id="v_239" type="car" route="route_NS_3" depart="2567.9" departLane="best" departSpeed="max"/>
  <vehicle id="v_240" type="bus" route="route_NS_3" depart="2668.7" departLane="best" departSpeed="max"/>
  <vehicle id="v_241" type="car" route="route_NS_3" depart="2889.6" departLane="best" departSpeed="max"/>
  <vehicle id="v_242" type="car" route="route_NS_3" depart="2988.7" departLane="best" departSpeed="max"/>
  <vehicle id="v_243" type="car" route="route_NS_3" depart="3055.2" departLane="best" departSpeed="max"/>
  <vehicle id="v_244" type="car" route="route_NS_3" depart="3073.1" departLane="best" departSpeed="max"/>
  <vehicle id="v_245" type="car" route="route_NS_3" depart="3075.2" departLane="best" departSpeed="max"/>
  <vehicle id="v_246" type="car" route="route_NS_3" depart="3157.0" departLane="best" departSpeed="max"/>
  <vehicle id="v_247" type="car" route="route_NS_3" depart="3170.0" departLane="best" departSpeed="max"/>
  <vehicle id="v_248" type="car" route="route_NS_3" depart="3179.8" departLane="best" departSpeed="max"/>
  <vehicle id="v_249" type="car" route="route_NS_3" depart="3181.8" departLane="best" departSpeed="max"/>
  <vehicle id="v_250" type="car" route="route_NS_3" depart="3241.6" departLane="best" departSpeed="max"/>
  <vehicle id="v_251" type="car" route="route_NS_3" depart="3315.8" departLane="best" departSpeed="max"/>
  <vehicle id="v_252" type="car" route="route_NS_3" depart="3360.3" departLane="best" departSpeed="max"/>
  <vehicle id="v_253" type="car" route="route_NS_3" depart="3394.7" departLane="best" departSpeed="max"/>
  <vehicle id="v_254" type="car" route="route_NS_3" depart="3423.2" departLane="best" departSpeed="max"/>
  <vehicle id="v_255" type="car" route="route_NS_3" depart="3457.5" departLane="best" departSpeed="max"/>
  <vehicle id="v_256" type="car" route="route_NS_3" depart="3585.9" departLane="best" departSpeed="max"/>
  <vehicle id="v_257" type="car" route="route_NS_3" depart="3592.0" departLane="best" departSpeed="max"/>
  <vehicle id="v_258" type="car" route="route_SN_0" depart="72.0" departLane="best" departSpeed="max"/>
  <vehicle id="v_259" type="car" route="route_SN_0" depart="147.6" departLane="best" departSpeed="max"/>