<?xml version="1.0" encoding="UTF-8"?>
<edges xmlns:xsi="http://www.w3.org/2001/XMLSchema-instance" xsi:noNamespaceSchemaLocation="http://sumo.dlr.de/xsd/edges_file.xsd">
  <edge id="J0_0_to_J0_1" from="J0_0" to="J0_1" numLanes="2" speed="13.89"/>
  <edge id="J0_1_to_J0_0" from="J0_1" to="J0_0" numLanes="2" speed="13.89"/>
  <edge id="J0_1_to_J0_2" from="J0_1" to="J0_2" numLanes="2" speed="13.89"/>
  <edge id="J0_2_to_J0_1" from="J0_2" to="J0_1" numLanes="2" speed="13.89"/>
  <edge id="J0_2_to_J0_3" from="J0_2" to="J0_3" numLanes="2" speed="13.89"/>
  <edge id="J0_3_to_J0_2" from="J0_3" to="J0_2" numLanes="2" speed="13.89"/>
  <edge id="J1_0_to_J1_1" from="J1_0" to="J1_1" numLanes="2" speed="13.89"/>
  <edge id="J1_1_to_J1_0" from="J1_1" to="J1_0" numLanes="2" speed="13.89"/>
  <edge id="J1_1_to_J1_2" from="J1_1" to="J1_2" numLanes="2" speed="13.89"/>
  <edge id="J1_2_to_J1_1" from="J1_2" to="J1_1" numLanes="2" speed="13.89"/>
  <edge id="J1_2_to_J1_3" from="J1_2" to="J1_3" numLanes="2" speed="13.89"/>
  <edge id="J1_3_to_J1_2" from="J1_3" to="J1_2" numLanes="2" speed="13.89"/>
  <edge id="J2_0_to_J2_1" from="J2_0" to="J2_1" numLanes="2" speed="13.89"/>
  <edge id="J2_1_to_J2_0" from="J2_1" to="J2_0" numLanes="2" speed="13.89"/>
  <edge id="J2_1_to_J2_2" from="J2_1" to="J2_2" numLanes="2" speed="13.89"/>
  <edge id="J2_2_to_J2_1" from="J2_2" to="J2_1" numLanes="2" speed="13.89"/>
  <edge id="J2_2_to_J2_3" from="J2_2" to="J2_3" numLanes="2" speed="13.89"/>
  <edge id="J2_3_to_J2_2" from="J2_3" to="J2_2" numLanes="2" speed="13.89"/>
  <edge id="J3_0_to_J3_1" from="J3_0" to="J3_1" numLanes="2" speed="13.89"/>
  <edge id="J3_1_to_J3_0" from="J3_1" to="J3_0" numLanes="2" speed="13.89"/>
  <edge id="J3_1_to_J3_2" from="J3_1" to="J3_2" numLanes="2" speed="13.89"/>
  <edge id="J3_2_to_J3_1" from="J3_2" to="J3_1" numLanes="2" speed="13.89"/>
  <edge id="J3_2_to_J3_3" from="J3_2" to="J3_3" numLanes="2" speed="13.89"/>
  <edge id="J3_3_to_J3_2" from="J3_3" to="J3_2" numLanes="2" speed="13.89"/>
  <edge id="J0_0_to_J1_0" from="J0_0" to="J1_0" numLanes="2" speed="13.89"/>
  <edge id="J1_0_to_J0_0" from="J1_0" to="J0_0" numLanes="2" speed="13.89"/>
  <edge id="J1_0_to_J2_0" from="J1_0" to="J2_0" numLanes="2" speed="13.89"/>
  <edge id="J2_0_to_J1_0" from="J2_0" to="J1_0" numLanes="2" speed="13.89"/>
  <edge id="J2_0_to_J3_0" from="J2_0" to="J3_0" numLanes="2" speed="13.89"/>
  <edge id="J3_0_to_J2_0" from="J3_0" to="J2_0" numLanes="2" speed="13.89"/>
  <edge id="J0_1_to_J1_1" from="J0_1" to="J1_1" numLanes="2" speed="13.89"/>
  <edge id="J1_1_to_J0_1" from="J1_1" to="J0_1" numLanes="2" speed="13.89"/>
  <edge id="J1_1_to_J2_1" from="J1_1" to="J2_1" numLanes="2" speed="13.89"/>
  <edge id="J2_1_to_J1_1" from="J2_1" to="J1_1" numLanes="2" speed="13.89"/>
  <edge id="J2_1_to_J3_1" from="J2_1" to="J3_1" numLanes="2" speed="13.89"/>
  <edge id="J3_1_to_J2_1" from="J3_1" to="J2_1" numLanes="2" speed="13.89"/>
  <edge id="J0_2_to_J1_2" from="J0_2" to="J1_2" numLanes="2" speed="13.89"/>
  <edge id="J1_2_to_J0_2" from="J1_2" to="J0_2" numLanes="2" speed="13.89"/>
  <edge id="J1_2_to_J2_2" from="J1_2" to="J2_2" numLanes="2" speed="13.89"/>
  <edge id="J2_2_to_J1_2" from="J2_2" to="J1_2" numLanes="2" speed="13.89"/>
  <edge id="J2_2_to_J3_2" from="J2_2" to="J3_2" numLanes="2" speed="13.89"/>
  <edge id="J3_2_to_J2_2" from="J3_2" to="J2_2" numLanes="2" speed="13.89"/>
  <edge id="J0_3_to_J1_3" from="J0_3" to="J1_3" numLanes="2" speed="13.89"/>
  <edge id="J1_3_to_J0_3" from="J1_3" to="J0_3" numLanes="2" speed="13.89"/>
  <edge id="J1_3_to_J2_3" from="J1_3" to="J2_3" numLanes="2" speed="13.89"/>
  <edge id="J2_3_to_J1_3" from="J2_3" to="J1_3" numLanes="2" speed="13.89"/>
  <edge id="J2_3_to_J3_3" from="J2_3" to="J3_3" numLanes="2" speed="13.89"/>
  <edge id="J3_3_to_J2_3" from="J3_3" to="J2_3" numLanes="2" speed="13.89"/>
  <edge id="N_in_0_to_J3_0" from="N_in_0" to="J3_0" numLanes="2" speed="13.89"/>
  <edge id="J3_0_to_N_in_0" from="J3_0" to="N_in_0" numLanes="2" speed="13.89"/>
  <edge id="N_in_1_to_J3_1" from="N_in_1" to="J3_1" numLanes="2" speed="13.89"/>
  <edge id="J3_1_to_N_in_1" from="J3_1" to="N_in_1" numLanes="2" speed="13.89"/>
  <edge id="N_in_2_to_J3_2" from="N_in_2" to="J3_2" numLanes="2" speed="13.89"/>
  <edge id="J3_2_to_N_in_2" from="J3_2" to="N_in_2" numLanes="2" speed="13.89"/>
  <edge id="N_in_3_to_J3_3" from="N_in_3" to="J3_3" numLanes="2" speed="13.89"/>
  <edge id="J3_3_to_N_in_3" from="J3_3" to="N_in_3" numLanes="2" speed="13.89"/>
  <edge id="S_in_0_to_J0_0" from="S_in_0" to="J0_0" numLanes="2" speed="13.89"/>
  <edge id="J0_0_to_S_in_0" from="J0_0" to="S_in_0" numLanes="2" speed="13.89"/>
  <edge id="S_in_1_to_J0_1" from="S_in_1" to="J0_1" numLanes="2" speed="13.89"/>
  <edge id="J0_1_to_S_in_1" from="J0_1" to="S_in_1" numLanes="2" speed="13.89"/>
  <edge id="S_in_2_to_J0_2" from="S_in_2" to="J0_2" numLanes="2" speed="13.89"/>
  <edge id="J0_2_to_S_in_2" from="J0_2" to="S_in_2" numLanes="2" speed="13.89"/>
  <edge id="S_in_3_to_J0_3" from="S_in_3" to="J0_3" numLanes="2" speed="13.89"/>
  <edge id="J0_3_to_S_in_3" from="J0_3" to="S_in_3" numLanes="2" speed="13.89"/>
  <edge id="W_in_0_to_J0_0" from="W_in_0" to="J0_0" numLanes="2" speed="13.89"/>
  <edge id="J0_0_to_W_in_0" from="J0_0" to="W_in_0" numLanes="2" speed="13.89"/>
  <edge id="W_in_1_to_J1_0" from="W_in_1" to="J1_0" numLanes="2" speed="13.89"/>
  <edge id="J1_0_to_W_in_1" from="J1_0" to="W_in_1" numLanes="2" speed="13.89"/>
  <edge id="W_in_2_to_J2_0" from="W_in_2" to="J2_0" numLanes="2" speed="13.89"/>
  <edge id="J2_0_to_W_in_2" from="J2_0" to="W_in_2" numLanes="2" speed="13.89"/>
  <edge id="W_in_3_to_J3_0" from="W_in_3" to="J3_0" numLanes="2" speed="13.89"/>
  <edge id="J3_0_to_W_in_3" from="J3_0" to="W_in_3" numLanes="2" speed="13.89"/>
  <edge id="E_in_0_to_J0_3" from="E_in_0" to="J0_3" numLanes="2" speed="13.89"/>
  <edge id="J0_3_to_E_in_0" from="J0_3" to="E_in_0" numLanes="2" speed="13.89"/>
  <edge id="E_in_1_to_J1_3" from="E_in_1" to="J1_3" numLanes="2" speed="13.89"/>
  <edge id="J1_3_to_E_in_1" from="J1_3" to="E_in_1" numLanes="2" speed="13.89"/>
  <edge id="E_in_2_to_J2_3" from="E_in_2" to="J2_3" numLanes="2" speed="13.89"/>
  <edge id="J2_3_to_E_in_2" from="J2_3" to="E_in_2" numLanes="2" speed="13.89"/>
  <edge id="E_in_3_to_J3_3" from="E_in_3" to="J3_3" numLanes="2" speed="13.89"/>
  <edge id="J3_3_to_E_in_3" from="J3_3" to="E_in_3" numLanes="2" speed="13.89"/>
</edges>